/*--------------------------------*- C++ -*----------------------------------*\
  =========                 |
  \\      /  F ield         | OpenFOAM: The Open Source CFD Toolbox
   \\    /   O peration     | Website:  https://openfoam.org
    \\  /    A nd           | Version:  6
     \\/     M anipulation  |
\*---------------------------------------------------------------------------*/
FoamFile
{
    version     2.0;
    format      ascii;
    class       dictionary;
    location    "system";
    object      controlDict;
}
// * * * * * * * * * * * * * * * * * * * * * * * * * * * * * * * * * * * * * //

application     pisoFoam;

startFrom       startTime;

startTime       0;

stopAt          endTime;

endTime         50;

deltaT          5e-03;

writeControl    adjustableRunTime;

writeInterval   10;

purgeWrite      0;

writeFormat     ascii;

writePrecision  6;

writeCompression off;

timeFormat      general;

timePrecision   6;

runTimeModifiable true;

functions
{
 /*   probes
    {
        type            probes;
        functionObjectLibs ("libsampling.so");
        enabled         true;
        writeControl    timeStep;
        writeInterval   1;

        fields
        (
            p
        );

        probeLocations
        (
            (0.25 0 0)
            (0.25 0 0.13823)
            (0.25 0 0.27646)
            (0.25 0 0.41469)
            (0.09 0.23 0.44)
           
        );

    }*/

    fieldAverage1
    {
        type            fieldAverage;
         functionObjectLibs ("libfieldFunctionObjects.so");
         enabled         true;
        outputControl   outputTime;


        fields
        (
            U
            {
                mean        on;
                prime2Mean  on;
                base        time;
            }

            p
            {
                mean        on;
                prime2Mean  on;
                base        time;
            }
        );
    }

    surfaceSampling
    {
        // Sample near-wall velocity

        type surfaces;

        // Where to load it from (if not already in solver)
       functionObjectLibs ("libsampling.so");
        enabled         true;
        outputControl   outputTime;

        interpolationScheme cellPoint;

        surfaceFormat vtk;

        // Fields to be sampled
        fields
        (
            U
        );

        surfaces
        (
            nearWall
            {
                type            patchInternalField;
                patches         ( lowerWall );
                distance        1E-6;
                interpolate     true;
                triangulate     false;
            }
        );
    }

   // #includeFunc scalarTransport
}

// ************************************************************************* //
